/*--------------------------------*- C++ -*----------------------------------*\
| =========                 |                                                 |
| \\      /  F ield         | OpenFOAM: The Open Source CFD Toolbox           |
|  \\    /   O peration     | Version:  plus                                  |
|   \\  /    A nd           | Web:      www.OpenFOAM.com                      |
|    \\/     M anipulation  |                                                 |
\*---------------------------------------------------------------------------*/
FoamFile
{
	version    2.0;
	format     ascii;
	class      dictionary;
	object     blockMeshDict;
}

scale 1;

vertices
(
	(-11.45245398026956 0 -3.6395510530517665)
	(17.178680970404336 0 -3.6395510530517665)
	(17.178680970404336 4.610098000532238 -3.6395510530517665)
	(-11.45245398026956 4.610098000532238 -3.6395510530517665)
	(-11.45245398026956 0 2.9116408424414133)
	(17.178680970404336 0 2.9116408424414133)
	(17.178680970404336 4.610098000532238 2.9116408424414133)
	(-11.45245398026956 4.610098000532238 2.9116408424414133)
);

edges
(

);

blocks
(
	hex (0 1 2 3 4 5 6 7) (118 19 27) simpleGrading (1 1 1)
);

boundary
(
	inlet
	{
		type patch;
		faces
		(
			(0 4 7 3)
		);
	}
	sides
	{
		type patch;
		faces
		(
			(3 2 6 7)
			(0 3 2 1)
		);
	}
	midPlane
	{
		type symmetryPlane;
		faces
		(
			(0 1 5 4)
		);
	}
	outlet
	{
		type patch;
		faces
		(
			(2 6 5 1)
		);
	}
	top
	{
		type patch;
		faces
		(
			(4 5 6 7)
		);
	}
);

