/*--------------------------------*- C++ -*----------------------------------*\
| =========                 |                                                 |
| \\      /  F ield         | OpenFOAM: The Open Source CFD Toolbox           |
|  \\    /   O peration     | Version:  plus                                  |
|   \\  /    A nd           | Web:      www.OpenFOAM.com                      |
|    \\/     M anipulation  |                                                 |
\*---------------------------------------------------------------------------*/
FoamFile
{
	version    2.0;
	format     ascii;
	class      dictionary;
	object     blockMeshDict;
}

scale 1;

vertices
(
	(-11.484615883703157 0 -3.697698295889274)
	(17.226923825554735 0 -3.697698295889274)
	(17.226923825554735 4.567744953745573 -3.697698295889274)
	(-11.484615883703157 4.567744953745573 -3.697698295889274)
	(-11.484615883703157 0 3.0451633024970493)
	(17.226923825554735 0 3.0451633024970493)
	(17.226923825554735 4.567744953745573 3.0451633024970493)
	(-11.484615883703157 4.567744953745573 3.0451633024970493)
);

edges
(

);

blocks
(
	hex (0 1 2 3 4 5 6 7) (132 21 31) simpleGrading (1 1 1)
);

boundary
(
	inlet
	{
		type patch;
		faces
		(
			(0 4 7 3)
		);
	}
	sides
	{
		type patch;
		faces
		(
			(3 2 6 7)
			(0 3 2 1)
		);
	}
	midPlane
	{
		type symmetryPlane;
		faces
		(
			(0 1 5 4)
		);
	}
	outlet
	{
		type patch;
		faces
		(
			(2 6 5 1)
		);
	}
	top
	{
		type patch;
		faces
		(
			(4 5 6 7)
		);
	}
);

