/*--------------------------------*- C++ -*----------------------------------*\
| =========                 |                                                 |
| \\      /  F ield         | OpenFOAM: The Open Source CFD Toolbox           |
|  \\    /   O peration     | Version:  plus                                  |
|   \\  /    A nd           | Web:      www.OpenFOAM.com                      |
|    \\/     M anipulation  |                                                 |
\*---------------------------------------------------------------------------*/
FoamFile
{
	version    2.0;
	format     ascii;
	class      dictionary;
	object     blockMeshDict;
}

scale 1;

vertices
(
	(-11.477582094947612 0 -3.7942420148587144)
	(17.216373142421418 0 -3.7942420148587144)
	(17.216373142421418 4.505662392644723 -3.7942420148587144)
	(-11.477582094947612 4.505662392644723 -3.7942420148587144)
	(-11.477582094947612 0 3.0828216370727053)
	(17.216373142421418 0 3.0828216370727053)
	(17.216373142421418 4.505662392644723 3.0828216370727053)
	(-11.477582094947612 4.505662392644723 3.0828216370727053)
);

edges
(

);

blocks
(
	hex (0 1 2 3 4 5 6 7) (121 19 29) simpleGrading (1 1 1)
);

boundary
(
	inlet
	{
		type patch;
		faces
		(
			(0 4 7 3)
		);
	}
	sides
	{
		type patch;
		faces
		(
			(3 2 6 7)
			(0 3 2 1)
		);
	}
	midPlane
	{
		type symmetryPlane;
		faces
		(
			(0 1 5 4)
		);
	}
	outlet
	{
		type patch;
		faces
		(
			(2 6 5 1)
		);
	}
	top
	{
		type patch;
		faces
		(
			(4 5 6 7)
		);
	}
);

