/*--------------------------------*- C++ -*----------------------------------*\
| =========                 |                                                 |
| \\      /  F ield         | OpenFOAM: The Open Source CFD Toolbox           |
|  \\    /   O peration     | Version:  plus                                  |
|   \\  /    A nd           | Web:      www.OpenFOAM.com                      |
|    \\/     M anipulation  |                                                 |
\*---------------------------------------------------------------------------*/
FoamFile
{
	version    2.0;
	format     ascii;
	class      dictionary;
	object     blockMeshDict;
}

scale 1;

vertices
(
	(-11.514529940026872 0 -3.6519964362025523)
	(17.271794910040306 0 -3.6519964362025523)
	(17.271794910040306 4.511289715309035 -3.6519964362025523)
	(-11.514529940026872 4.511289715309035 -3.6519964362025523)
	(-11.514529940026872 0 3.00752647687269)
	(17.271794910040306 0 3.00752647687269)
	(17.271794910040306 4.511289715309035 3.00752647687269)
	(-11.514529940026872 4.511289715309035 3.00752647687269)
);

edges
(

);

blocks
(
	hex (0 1 2 3 4 5 6 7) (134 21 31) simpleGrading (1 1 1)
);

boundary
(
	inlet
	{
		type patch;
		faces
		(
			(0 4 7 3)
		);
	}
	sides
	{
		type patch;
		faces
		(
			(3 2 6 7)
			(0 3 2 1)
		);
	}
	midPlane
	{
		type symmetryPlane;
		faces
		(
			(0 1 5 4)
		);
	}
	outlet
	{
		type patch;
		faces
		(
			(2 6 5 1)
		);
	}
	top
	{
		type patch;
		faces
		(
			(4 5 6 7)
		);
	}
);

